ipss.plugin.3phase/src/test/resources/opendss-reference/ieee8500-dss-python-voltage-reference.csv
case,bus,phase,vmag_pu,angle_deg
ieee8500,190-7361,1,1.039715106652,-39.911663499573
ieee8500,190-7361,2,1.037125522707,-160.356154492683
ieee8500,190-7361,3,1.038921512911,80.712385299303
ieee8500,190-8581,1,1.032068063269,-41.624470385043
ieee8500,190-8581,2,1.036342994236,-162.853298518893
ieee8500,190-8581,3,1.042373036039,81.240939927380
ieee8500,190-8593,1,1.044746972521,-43.956270063924
ieee8500,190-8593,2,1.044294097109,-165.868794705509
ieee8500,190-8593,3,1.047282049758,79.926148960136
ieee8500,193-103041,3,1.035853746170,79.640841807739
ieee8500,193-46661,3,1.037205822323,79.647120609684
ieee8500,193-48013,1,1.013639607787,-44.324166516964
ieee8500,193-51796,1,0.954033585570,-40.467260998553
ieee8500,196-29518,1,1.004699326526,-44.893971035281
ieee8500,196-29518,2,1.017080488582,-167.007018336687
ieee8500,196-29518,3,1.031317361151,79.562268243476
ieee8500,196-29519,1,1.027552310446,-44.371644557263
ieee8500,196-29519,2,1.030881460866,-166.369491744778
ieee8500,196-29519,3,1.038618879984,79.680375606622
ieee8500,196-29520,1,1.019983300630,-44.371677536476
ieee8500,196-29520,2,1.025368554776,-166.277900472742
ieee8500,196-29520,3,1.030115891505,79.679427366335
ieee8500,196-29521,2,1.017969117434,-165.177020775240
ieee8500,196-31070,1,0.993896165332,-38.522267706716
ieee8500,196-31070,2,1.004595551480,-158.889363802124
ieee8500,196-31070,3,1.037297166194,82.614335311795
ieee8500,196-35541,3,1.030648530553,81.630182647236
ieee8500,196-35813,1,1.019651194194,-44.373252626507
ieee8500,196-35813,2,1.025953897841,-166.258525344866
ieee8500,196-35813,3,1.030041700381,79.701227410547
ieee8500,196-36167,1,0.995921582100,-39.045737573884
ieee8500,196-36167,2,0.997103684288,-159.381455276870
ieee8500,196-36167,3,1.031214236443,81.557012672431
ieee8500,198-5320,1,1.022256436522,-36.424594743448
ieee8500,198-5320,2,1.025366520337,-156.452256059389
ieee8500,198-5320,3,1.042125458715,84.235573634460
ieee8500,221-240988,3,1.014776653658,79.779907087163
ieee8500,221-240991,1,0.997482682723,-44.669765442120
ieee8500,221-242079,1,1.023155437835,-36.414138805762
ieee8500,221-242079,2,1.026300806170,-156.442863610961
ieee8500,221-242079,3,1.043106178075,84.244534325535
ieee8500,221-282818,2,0.982232078588,-161.452455763094
ieee8500,221-282819,1,0.955475913668,-40.444598383978
ieee8500,221-306686,3,1.017536918037,78.879152491881
ieee8500,221-306687,2,1.003319456816,-161.614232566375
ieee8500,221-308718,1,0.954406303605,-40.439718953373
ieee8500,221-308718,2,0.981279760835,-161.455969971979
ieee8500,221-308718,3,1.035279073792,81.757620258819
ieee8500,221-311359,1,1.022252665058,-36.424615941821
ieee8500,221-311359,2,1.025362060959,-156.452264876035
ieee8500,221-311359,3,1.042120807750,84.235542552382
ieee8500,221-311583,1,1.013842864395,-44.321031050000
ieee8500,221-311595,3,1.017556660636,78.880899417361
ieee8500,221-311609,1,0.954037583825,-40.441809779820
ieee8500,221-311609,2,0.980921970303,-161.460847790323
ieee8500,221-311609,3,1.034999591277,81.753594532037
ieee8500,221-311905,1,0.954063026313,-40.441622646025
ieee8500,221-311905,2,0.980954489779,-161.460393810542
ieee8500,221-311905,3,1.035022750190,81.753968696858
ieee8500,221-312488,1,0.953941110537,-40.441786206179
ieee8500,221-312488,2,0.980801953275,-161.461402022816
ieee8500,221-312488,3,1.034907021518,81.753114352686
ieee8500,221-559681,3,1.036292347104,79.647153516648
ieee8500,221-559682,3,1.036274044623,79.646914697356
ieee8500,221-703009,3,1.035907836231,81.921339581898
ieee8500,226-23745,3,1.039683662295,85.008324046597
ieee8500,226-23751,1,0.996474931507,-38.924054196239
ieee8500,226-23751,2,0.998352844206,-159.230269755451
ieee8500,226-23751,3,1.031571594060,81.711066935247
ieee8500,228-1048090-1_int,2,0.980399623196,-161.480597109873
ieee8500,228-1353934-4_int,3,1.036120478644,79.644479775832
ieee8500,228-961799-3_int,3,1.037468825847,79.650962224367
ieee8500,228-979371-2_int,3,1.017166610059,78.875114054004
ieee8500,293471,1,1.003058740450,-40.746648685103
ieee8500,293471,2,0.995761063677,-161.712911082172
ieee8500,293471,3,1.029195336906,79.927939751052
ieee8500,_hvmv_sub_lsb,1,1.049278981956,-34.433023547025
ieee8500,_hvmv_sub_lsb,2,1.047757399148,-154.231016431913
ieee8500,_hvmv_sub_lsb,3,1.050348554777,85.964707914896
ieee8500,d5472341-1_int,2,1.000400479255,-161.669734078306
ieee8500,d5502543-2_int,1,1.009555570344,-44.841897816841
ieee8500,d5502543-2_int,2,1.021428739183,-166.849679606551
ieee8500,d5502543-2_int,3,1.032971140832,79.617984070723
ieee8500,d5513564-1_int,1,1.039229756684,-35.295030395638
ieee8500,d5513564-1_int,2,1.039088503114,-155.141466419916
ieee8500,d5513564-1_int,3,1.047046828094,85.180151668252
ieee8500,d5534969-2_int,1,1.005348360034,-43.100201804607
ieee8500,d5534969-2_int,2,1.020146624043,-165.018598833625
ieee8500,d5534969-2_int,3,1.043544624492,80.342901587099
ieee8500,d5534970-1_int,1,1.007026201719,-44.536412997974
ieee8500,d5534970-1_int,2,1.024883978098,-166.230984643944
ieee8500,d5534970-1_int,3,1.022577644389,79.761005122106
ieee8500,d5535139-1_int,1,0.955715474410,-40.559635437020
ieee8500,d5535139-1_int,2,0.984189179247,-161.544623918167
ieee8500,d5535139-1_int,3,1.036266541315,81.707838604535
ieee8500,d5563942-4_int,1,1.000835019733,-38.105148514599
ieee8500,d5563942-4_int,2,1.009459604693,-158.377942772609
ieee8500,d5563942-4_int,3,1.038585876606,82.904058150252
ieee8500,d5565090-1_int,2,0.972317466355,-162.060156693696
ieee8500,d5587291-3_int,1,1.031960496002,-41.630428179235
ieee8500,d5587291-3_int,2,1.036270561451,-162.861864294538
ieee8500,d5587291-3_int,3,1.042371128010,81.236789159223
ieee8500,d5655682-1_int,2,1.014907955825,-167.033361808781
ieee8500,d5682346-3_int,1,1.005076606155,-43.097439067792
ieee8500,d5682346-3_int,2,1.019734688694,-165.053684881682
ieee8500,d5682346-3_int,3,1.043756606419,80.335451856157
ieee8500,d5686080-1_int,1,1.003067714831,-40.746629097037
ieee8500,d5686080-1_int,2,0.995771481382,-161.712879912158
ieee8500,d5686080-1_int,3,1.029205161463,79.927994303259
ieee8500,d5710794-3_int,1,1.048946080011,-34.461598887228
ieee8500,d5710794-3_int,2,1.047469898989,-154.261050444569
ieee8500,d5710794-3_int,3,1.050238123528,85.938624004771
ieee8500,d5712486-1_int,3,1.027224589979,80.404573222818
ieee8500,d5746546-1_int,3,1.009321822974,81.323421215762
ieee8500,d5799561-2_int,1,0.996687255185,-38.439130904779
ieee8500,d5799561-2_int,2,1.005278298512,-158.761632774823
ieee8500,d5799561-2_int,3,1.036765819797,82.573952764362
ieee8500,d5806920-1_int,2,1.012477358408,-167.032300217445
ieee8500,d5835167-6_int,1,0.997578568993,-44.672284700465
ieee8500,d5835167-6_int,2,1.024157619302,-166.187964420281
ieee8500,d5835167-6_int,3,1.015602738623,79.787346933245
ieee8500,d5837361-8_int,3,1.008481947438,81.311372006897
ieee8500,d5860423-3_int,1,1.044534248413,-43.961677361525
ieee8500,d5860423-3_int,2,1.044134062310,-165.874469642802
ieee8500,d5860423-3_int,3,1.047163028363,79.922940927739
ieee8500,d5861005-2_int,1,0.993777713398,-38.528456326806
ieee8500,d5861005-2_int,2,1.004527695236,-158.897286473567
ieee8500,d5861005-2_int,3,1.037288727974,82.611219768857
ieee8500,d5865224-1_int,2,1.000496030430,-161.667337558302
ieee8500,d5867591-1_int,1,0.957536715417,-40.449181802652
ieee8500,d5867591-1_int,2,0.984995474798,-161.416103166694
ieee8500,d5867591-1_int,3,1.036327591706,81.750930133238
ieee8500,d5926308-3_int,1,1.008880505293,-40.767435372535
ieee8500,d5926308-3_int,2,1.003169084272,-161.632010657620
ieee8500,d5926308-3_int,3,1.030921795237,79.915117429820
ieee8500,d5956499-2_int,1,1.014664157827,-44.346601572721
ieee8500,d5956499-2_int,2,1.007784693125,-166.704149589121
ieee8500,d5956499-2_int,3,1.021819022180,79.141413898851
ieee8500,d5958866-1_int,1,0.996422364633,-38.873417313753
ieee8500,d5958866-1_int,2,0.998998395986,-159.187892049853
ieee8500,d5958866-1_int,3,1.032143572391,81.801277725601
ieee8500,d6019477-1_int,3,1.023282158609,79.494388335795
ieee8500,d6023352-1_int,1,1.004313784592,-37.837250215971
ieee8500,d6023352-1_int,2,1.012196504732,-158.061945831878
ieee8500,d6023352-1_int,3,1.039251452535,83.121420553414
ieee8500,d6047588-1_int,2,1.000148762256,-161.676045918189
ieee8500,d6049822-1_int,1,1.013203175139,-44.310579366241
ieee8500,d6049825-1_int,1,1.005120971759,-40.761107241602
ieee8500,d6049825-1_int,2,0.998978058329,-161.678413732356
ieee8500,d6049825-1_int,3,1.029850962344,79.926771503711
ieee8500,d6108141-1_int,1,1.030185552569,-44.314202313127
ieee8500,d6108141-1_int,2,1.033183911618,-166.255387048773
ieee8500,d6108141-1_int,3,1.039095548534,79.712520514282
ieee8500,d6138608-3_int,1,0.967250763466,-39.904562382598
ieee8500,d6138608-3_int,2,0.964870494507,-160.347819044996
ieee8500,d6138608-3_int,3,1.007506585581,80.719481142604
ieee8500,d6140776-1_int,1,1.008453103925,-44.518964928106
ieee8500,d6140778-1_int,2,0.983981728415,-161.887292830715
ieee8500,d6198039-1_int,1,0.968541440790,-39.854550182384
ieee8500,d6198039-1_int,2,0.990368463168,-160.645941977101
ieee8500,d6198039-1_int,3,1.036304701039,81.978052857309
ieee8500,d6231996-1_int,2,1.010767157479,-165.278516298205
ieee8500,d6290228-6_int,1,0.996332894614,-43.594559041982
ieee8500,d6290228-6_int,2,1.015705651962,-165.507573502974
ieee8500,d6290228-6_int,3,1.041077873790,80.101908581414
ieee8500,d6413567-3_int,1,1.029266077863,-40.245903810278
ieee8500,d6413567-3_int,2,1.026359767073,-160.750911328156
ieee8500,d6413567-3_int,3,1.032613026432,80.385855556665
ieee8500,e182722,1,1.013201284221,-44.310641240602
ieee8500,e182723,3,1.009320448548,81.323375813908
ieee8500,e182724,1,1.029258594149,-40.246657146454
ieee8500,e182724,2,1.026351050723,-160.751692132674
ieee8500,e182724,3,1.032613799509,80.385357040241
ieee8500,e182725,2,1.014907101852,-167.033389881563
ieee8500,e182726,2,1.012476500564,-167.032328363594
ieee8500,e182727,3,1.023278524624,79.494270408851
ieee8500,e182729,1,1.005303857490,-43.102274276820
ieee8500,e182729,2,1.020101024888,-165.020681442492
ieee8500,e182729,3,1.043516856575,80.341350063643
ieee8500,e182730,1,1.008452798798,-44.518974981541
ieee8500,e182731,2,0.983975319964,-161.887508587837
ieee8500,e182732,1,1.007017037480,-44.536714789216
ieee8500,e182732,2,1.024881456439,-166.231067148811
ieee8500,e182732,3,1.022572947240,79.760851579278
ieee8500,e182733,1,0.999519775286,-44.880972686000
ieee8500,e182733,2,1.011169492910,-167.073329760155
ieee8500,e182733,3,1.030432391629,79.590719326938
ieee8500,e182744,2,0.972317218026,-162.060165175225
ieee8500,e182745,1,1.015127878143,-44.356546002052
ieee8500,e182746,1,1.004394462462,-43.055257231974
ieee8500,e182746,2,1.018291276479,-165.171542182711
ieee8500,e182746,3,1.044795339136,80.322305534952
ieee8500,e182748,1,1.005116541175,-40.761254317833
ieee8500,e182748,2,0.998970081079,-161.678676817060
ieee8500,e182748,3,1.029847806855,79.926669122860
ieee8500,e183472,1,0.957531511100,-40.449363628284
ieee8500,e183472,2,0.984988376764,-161.416343748008
ieee8500,e183472,3,1.036325641482,81.750867019987
ieee8500,e183473,1,0.955658400475,-40.562117509181
ieee8500,e183473,2,0.984136942028,-161.546791411516
ieee8500,e183473,3,1.036233823306,81.706174246638
ieee8500,e183493,1,0.996410339131,-38.874361452953
ieee8500,e183493,2,0.998983999147,-159.188890042068
ieee8500,e183493,3,1.032122974947,81.800101370200
ieee8500,e184626,1,1.004237086572,-37.841056543512
ieee8500,e184626,2,1.012119368098,-158.065582502854
ieee8500,e184626,3,1.039191585618,83.117981054024
ieee8500,e192201,1,1.039143750157,-35.298712321533
ieee8500,e192201,2,1.039003913325,-155.144918076905
ieee8500,e192201,3,1.046974447106,85.176537228045
ieee8500,e192258,1,1.023158798102,-36.414146800536
ieee8500,e192258,2,1.026300613990,-156.442729670115
ieee8500,e192258,3,1.043104038644,84.244296171043
ieee8500,e192860,1,1.048865003259,-34.465512623307
ieee8500,e192860,2,1.047390286164,-154.264736994547
ieee8500,e192860,3,1.050170763754,85.934735158254
ieee8500,e193509,1,0.996672587943,-38.440153309457
ieee8500,e193509,2,1.005260086700,-158.762739893804
ieee8500,e193509,3,1.036742207231,82.572709921526
ieee8500,e203026,1,0.997472745763,-44.676426792739
ieee8500,e203026,2,1.024116941963,-166.178513758869
ieee8500,e203026,3,1.014777137666,79.780071369450
ieee8500,e206209,1,1.030165257533,-44.314854296442
ieee8500,e206209,2,1.033168378665,-166.255878756435
ieee8500,e206209,3,1.039077679087,79.711954640622
ieee8500,e206210,3,1.027223827896,80.404548582591
ieee8500,e206211,1,1.005075384145,-43.097479776142
ieee8500,e206211,2,1.019724712133,-165.054007731768
ieee8500,e206211,3,1.043755740824,80.335424005601
ieee8500,e206217,1,0.968477495774,-39.857172684968
ieee8500,e206217,2,0.990306140613,-160.648360612486
ieee8500,e206217,3,1.036267639430,81.976262275417
ieee8500,e206614,2,1.010762222790,-165.278678354458
ieee8500,f739841,2,1.000495885867,-161.667342350073
ieee8500,f739842,2,1.000400334678,-161.669738871001
ieee8500,f739844,2,1.000148617643,-161.676050713322
ieee8500,f739845,1,1.003067495350,-40.746636346426
ieee8500,f739845,2,0.995771238905,-161.712887992042
ieee8500,f739845,3,1.029204916234,79.927986399350
ieee8500,hvmv_sub_48332,1,1.049278858048,-34.433064983669
ieee8500,hvmv_sub_48332,2,1.047757264147,-154.231056288549
ieee8500,hvmv_sub_48332,3,1.050348504722,85.964669995567
ieee8500,hvmv_sub_hsb,1,1.047978348082,-0.718309384728
ieee8500,hvmv_sub_hsb,2,1.048589442510,-120.658152876903
ieee8500,hvmv_sub_hsb,3,1.049237052362,119.282878268753
ieee8500,l0247160,2,1.000491149338,-161.667461187566
ieee8500,l0247162,2,1.000395597697,-161.669857731508
ieee8500,l0247171,2,1.000143879471,-161.676169634484
ieee8500,l2673300,2,0.973411645072,-162.044153497939
ieee8500,l2673303,3,1.022434445593,79.307748085151
ieee8500,l2673305,2,1.034278062650,-160.415656597040
ieee8500,l2673306,3,1.008429721461,81.310607542835
ieee8500,l2673307,3,1.009505619363,81.326015157324
ieee8500,l2673308,1,1.016240888002,-44.377513731169
ieee8500,l2673308,2,1.013674305388,-166.545544282988
ieee8500,l2673308,3,1.023802355022,79.303159589057
ieee8500,l2673309,3,1.030634546430,80.451189149057
ieee8500,l2673310,1,1.025289172150,-40.329156433362
ieee8500,l2673311,1,1.007903348310,-44.871664816915
ieee8500,l2673312,1,0.997850382390,-44.937210631767
ieee8500,l2673313,1,0.995014251494,-44.981527816651
ieee8500,l2673313,2,1.012813532651,-167.040680639614
ieee8500,l2673313,3,1.024920532418,79.507466101298
ieee8500,l2673314,3,1.031810010946,79.565492431796
ieee8500,l2673315,1,0.976965028293,-39.578517837084
ieee8500,l2673316,1,0.974789679050,-39.652472320298
ieee8500,l2673317,1,0.994810713076,-44.697920393108
ieee8500,l2673318,3,1.043281129699,79.816491541141
ieee8500,l2673319,1,0.997474664874,-44.675791184841
ieee8500,l2673319,2,1.024131390676,-166.180628098648
ieee8500,l2673319,3,1.014960042152,79.781978012216
ieee8500,l2673320,2,0.986724765604,-167.124198495889
ieee8500,l2673321,1,1.004646175768,-40.774351844359
ieee8500,l2673322,2,1.011153164799,-167.073563069731
ieee8500,l2673323,3,1.030407614489,79.568766934151
ieee8500,l2673326,2,1.004350535133,-167.168623339952
ieee8500,l2673331,2,1.013872462572,-165.234728735344
ieee8500,l2673343,2,0.992120797341,-166.924676456060
ieee8500,l2673346,1,1.004673329878,-40.757972789605
ieee8500,l2673346,2,0.998261347841,-161.686007762384
ieee8500,l2673346,3,1.029691768486,79.926685926279
ieee8500,l2674027,1,0.939891265305,-41.513131606597
ieee8500,l2674027,2,0.976329901186,-162.713009346578
ieee8500,l2674027,3,1.035924910043,81.297820357933
ieee8500,l2674047,1,0.996493070193,-38.547586411938
ieee8500,l2674047,2,1.003691575492,-158.871756160569
ieee8500,l2674047,3,1.035632622963,82.387650755190
ieee8500,l2674051,1,0.996415653164,-38.902246505367
ieee8500,l2674052,3,1.019687234823,81.470428379725
ieee8500,l2684420,2,0.989676637359,-166.960903543221
ieee8500,l2685805,1,1.004108656001,-44.862435792485
ieee8500,l2685809,1,1.030730355254,-44.311604514763
ieee8500,l2688692,1,0.982265081106,-39.429718680595
ieee8500,l2688692,2,0.982232002043,-159.807489444548
ieee8500,l2688692,3,1.020053709299,81.188775785869
ieee8500,l2688693,1,0.983078636676,-39.406596505359
ieee8500,l2688693,2,0.983106082915,-159.781651511530
ieee8500,l2688693,3,1.020695356155,81.210564561729
ieee8500,l2689678,2,1.001501220347,-161.642131128179
ieee8500,l2689691,1,0.999526002871,-44.881732348217
ieee8500,l2689691,2,1.011229779809,-167.072463864437
ieee8500,l2689691,3,1.030417266174,79.590853546169
ieee8500,l2689726,1,0.989991510654,-44.768804749523
ieee8500,l2689727,1,0.991051798007,-45.034256685664
ieee8500,l2690187,2,0.981663773950,-161.461158775904
ieee8500,l2690868,3,1.017166609706,78.875114089268
ieee8500,l2690941,2,0.986805931147,-167.002417368165
ieee8500,l2691936,1,1.011059010037,-44.792721462282
ieee8500,l2691938,2,1.004256880639,-167.169988168849
ieee8500,l2691939,2,1.006867632307,-167.128522199541
ieee8500,l2691941,3,1.020615951155,79.447643341113
ieee8500,l2691942,2,1.002028764751,-161.632067423925
ieee8500,l2691943,2,0.988229850103,-166.981414072138
ieee8500,l2691944,1,0.997898910986,-44.936502117250
ieee8500,l2691945,3,1.029145513532,80.431547893643
ieee8500,l2691946,2,1.035388836736,-160.399761758748
ieee8500,l2691947,1,0.990396563272,-44.762948583751
ieee8500,l2691948,2,0.988858311260,-167.069767081518
ieee8500,l2691949,2,0.997834896224,-166.926852287289
ieee8500,l2691950,3,1.031025050545,80.457288587522
ieee8500,l2691951,3,1.032454326743,80.477043061945
ieee8500,l2691952,1,0.997535213538,-44.673602648472
ieee8500,l2691952,2,1.024150429632,-166.185450845656
ieee8500,l2691952,3,1.015380610252,79.785561468369
ieee8500,l2691953,1,1.008469615778,-40.768515994884
ieee8500,l2691954,1,0.999739491836,-40.720930528242
ieee8500,l2691954,2,0.990910090417,-161.781332516142
ieee8500,l2691954,3,1.029390912663,79.944782346116
ieee8500,l2691959,2,1.000024395901,-161.679155530801
ieee8500,l2691965,2,1.018219845520,-165.173605495687
ieee8500,l2691966,2,1.012149908986,-165.258632580386
ieee8500,l2691967,1,0.994886917571,-43.636303920879
ieee8500,l2691967,2,1.014703940609,-165.548752878455
ieee8500,l2691967,3,1.040344315706,80.081165083496
ieee8500,l2691973,1,1.012305236772,-44.774855066978
ieee8500,l2692600,3,1.041484674569,81.195525545199
ieee8500,l2692633,1,0.938889660724,-41.574254782432
ieee8500,l2692633,2,0.975766662745,-162.792821387728
ieee8500,l2692633,3,1.035919172391,81.267410418963
ieee8500,l2692654,1,0.996259923291,-38.757361729749
ieee8500,l2692655,1,0.996454309307,-38.566929550497
ieee8500,l2692655,2,1.003408347935,-158.892204480265
ieee8500,l2692655,3,1.035444595594,82.354660439412
ieee8500,l2692660,1,0.996695878334,-38.373739578924
ieee8500,l2692661,1,1.008889176179,-37.476747947740
ieee8500,l2692664,3,1.025527126870,81.554952268212
ieee8500,l2708293,1,1.014995705206,-44.098341274783
ieee8500,l2708744,2,0.981982996448,-161.456267075622
ieee8500,l2710504,2,0.987278708055,-166.995434801780
ieee8500,l2710505,2,0.988336831094,-166.979825071046
ieee8500,l2710508,2,0.988674234942,-166.975843692561
ieee8500,l2710509,3,1.015269952002,81.409094491943
ieee8500,l2710510,3,1.032275303285,80.199662363194
ieee8500,l2710511,1,1.022207941812,-44.316884564306
ieee8500,l2710512,2,0.989155543037,-166.967713339454
ieee8500,l2710513,2,0.988250661551,-166.981081484971
ieee8500,l2710514,2,0.995794056492,-166.870498945387
ieee8500,l2710515,3,1.022026987541,79.476476090485
ieee8500,l2710516,1,0.997971372712,-44.935476109564
ieee8500,l2710517,1,0.994377578480,-44.704245250850
ieee8500,l2710518,1,0.997460227805,-44.676582236234
ieee8500,l2710519,1,1.004636411453,-40.774507668746
ieee8500,l2710520,1,1.015386560668,-40.731777217442
ieee8500,l2710521,1,1.015325945941,-40.732684646499
ieee8500,l2710525,3,1.030347348482,79.567921348703
ieee8500,l2710530,2,1.013438338811,-165.240064255801
ieee8500,l2710532,3,1.016585770645,79.796479065012
ieee8500,l2710536,1,1.007542114039,-44.872763911395
ieee8500,l2710537,2,0.973014385899,-162.049956596553
ieee8500,l2710542,2,1.010761449130,-167.074708031523
ieee8500,l2710543,3,1.021964189312,79.158505656658
ieee8500,l2710544,1,0.990553382694,-44.760767683820
ieee8500,l2710546,2,0.988310855284,-167.083709771819
ieee8500,l2711224,2,0.999604994556,-159.127244034935
ieee8500,l2711225,3,1.037061471574,82.547339106853
ieee8500,l2711226,1,0.996380681762,-38.584831307750
ieee8500,l2711226,2,1.003110430856,-158.911227529229
ieee8500,l2711226,3,1.035229932548,82.324815095487
ieee8500,l2711234,2,0.997141226623,-159.367544250705
ieee8500,l2724120,3,1.030724194985,80.452455521241
ieee8500,l2726973,1,1.017925707054,-44.408451603499
ieee8500,l2726973,2,1.021746377944,-166.368733003248
ieee8500,l2726973,3,1.027798723166,79.568992487128
ieee8500,l2726974,2,1.007032191474,-165.332542010089
ieee8500,l2726975,2,0.987518247734,-166.991897723122
ieee8500,l2726983,1,0.991139842673,-45.033305688899
ieee8500,l2727008,2,1.008208519074,-165.315528255316
ieee8500,l2727019,1,1.008916731324,-37.476348501571
ieee8500,l2727795,3,1.031504316670,80.463208614072
ieee8500,l2728247,1,0.953983407777,-40.441441419294
ieee8500,l2728247,2,0.980831696192,-161.461530655671
ieee8500,l2728247,3,1.034957221202,81.753312269791
ieee8500,l2729206,3,1.037593421327,79.652771176349
ieee8500,l2729207,3,1.037468825439,79.650962264281
ieee8500,l2729401,2,1.005245519800,-167.155605584067
ieee8500,l2729405,2,1.032974505769,-160.434635892431
ieee8500,l2729406,3,1.009136685085,81.320751511663
ieee8500,l2729407,2,1.002922456773,-161.619117014800
ieee8500,l2729408,2,1.017429155359,-167.002479017978
ieee8500,l2729409,2,1.004427373307,-167.167482272806
ieee8500,l2729410,3,1.027526852465,79.718420776634
ieee8500,l2729411,1,1.009990547856,-40.770615779085
ieee8500,l2729412,1,0.997144985962,-40.702389005503
ieee8500,l2729413,1,1.013308903271,-44.760676017810
ieee8500,l2729414,1,1.001759912605,-44.600127914612
ieee8500,l2729414,2,1.024415138666,-166.219008439455
ieee8500,l2729414,3,1.019495254442,79.787285814582
ieee8500,l2729423,3,1.044802046147,80.320308011062
ieee8500,l2729424,1,1.004364954849,-43.055807273274
ieee8500,l2729427,2,0.993509660848,-166.904182770692
ieee8500,l2729428,1,0.995964924973,-44.680986041787
ieee8500,l2729429,1,1.008409210279,-44.519603929479
ieee8500,l2729430,2,1.010432801459,-167.079431867135
ieee8500,l2729434,2,1.013285760204,-167.041948865465
ieee8500,l2730106,1,0.948856603180,-40.971470766449
ieee8500,l2730106,2,0.980929634115,-162.033501727582
ieee8500,l2730106,3,1.036023146346,81.539110430164
ieee8500,l2730107,3,1.041084863377,81.190227219500
ieee8500,l2730108,3,1.042177151732,85.042962487752
ieee8500,l2730149,1,0.957566616727,-40.449254668087
ieee8500,l2730149,2,0.985026441255,-161.415611838899
ieee8500,l2730149,3,1.036326095704,81.750730647708
ieee8500,l2730163,1,0.996304675643,-38.716437065400
ieee8500,l2730163,2,1.001208220430,-159.041342551916
ieee8500,l2730163,3,1.033849107528,82.090334181575
ieee8500,l2730187,1,1.008891350262,-37.476712527692
ieee8500,l2731712,2,1.012356669293,-167.035306611324
ieee8500,l2745799,3,1.032686049781,79.606374644928
ieee8500,l2745806,3,1.022108372845,79.299225278642
ieee8500,l2745811,3,1.026574986502,84.796834596462
ieee8500,l2745848,1,1.016375789681,-44.380133253117
ieee8500,l2745848,2,1.014138367051,-166.532334569948
ieee8500,l2745848,3,1.023933677614,79.314951979310
ieee8500,l2746587,3,1.030601723315,79.560442261951
ieee8500,l2748124,2,0.986941632368,-167.000371805135
ieee8500,l2748125,3,1.022446551411,79.307920017029
ieee8500,l2748126,3,1.020741934165,79.450752617771
ieee8500,l2748127,1,1.020518450018,-44.277332230040
ieee8500,l2748128,3,1.011383567418,81.353130443971
ieee8500,l2748129,1,1.025760088069,-40.321256227677
ieee8500,l2748130,2,1.006590913483,-161.565962028165
ieee8500,l2748131,2,0.993847948604,-166.899195652993
ieee8500,l2748132,1,0.989991361310,-44.768789261396
ieee8500,l2748133,3,1.027186055241,80.404037849188
ieee8500,l2748135,1,0.996731615094,-40.700834645166
...
ieee8500,l2823592_cap,1,1.040400331685,-35.198274542775
ieee8500,l2823592_cap,2,1.040101201335,-155.037575868411
ieee8500,l2823592_cap,3,1.047424935554,85.268716908685
ieee8500,l2823611,1,1.028147240862,-36.065674894081
ieee8500,l2823611,2,1.030356925875,-156.026309050216
ieee8500,l2823611,3,1.044257069191,84.539643294119
ieee8500,l2839305,1,1.008976462514,-37.475518341251
ieee8500,l2839331,1,0.991770632525,-45.023692208367
ieee8500,l2839332,3,1.046576052760,85.103720631075
ieee8500,l2841615,1,1.011272203156,-44.789658389129
ieee8500,l2841616,1,1.014309362313,-44.345406411850
ieee8500,l2841618,1,1.012888797154,-44.315083783820
ieee8500,l2841619,3,1.008315070908,81.309220732101
ieee8500,l2841620,2,1.005846511508,-161.576728253547
ieee8500,l2841621,1,1.018737745778,-44.212390075220
ieee8500,l2841621,2,1.009224418731,-166.671691392201
ieee8500,l2841621,3,1.039925202145,79.653248164770
ieee8500,l2841622,1,1.015269959274,-44.094387574608
ieee8500,l2841623,1,0.998246108045,-44.900772790446
ieee8500,l2841624,2,1.004408400310,-167.167756895114
ieee8500,l2841625,3,1.027931410103,80.414310129527
ieee8500,l2841626,3,1.028068874658,80.416269764890
ieee8500,l2841627,1,0.990135296092,-44.766699997714
ieee8500,l2841628,1,0.974752805435,-39.653423506262
ieee8500,l2841629,3,1.032547012383,80.478098496098
ieee8500,l2841630,3,1.032512111174,80.477635555101
ieee8500,l2841631,3,1.015202956815,79.783920946986
ieee8500,l2841632,1,0.984082910515,-43.925669145966
ieee8500,l2841632,2,1.007120703702,-165.839791844126
ieee8500,l2841632,3,1.034779219209,79.943137608538
ieee8500,l2841633,1,1.008379615341,-44.520659043322
ieee8500,l2841633,2,1.025038994917,-166.233703033759
ieee8500,l2841633,3,1.023367763196,79.754388469136
ieee8500,l2841634,2,0.986734669225,-167.123947762371
ieee8500,l2841635,1,1.017884215879,-44.394483802135
ieee8500,l2841635,2,1.025809104985,-166.253264826758
ieee8500,l2841635,3,1.028919056320,79.709141939014
ieee8500,l2841636,2,0.982676520470,-161.906655149652
ieee8500,l2841637,3,1.028413187230,79.916685248781
ieee8500,l2841638,3,1.032517540441,79.952399317226
ieee8500,l2841639,1,1.013508893551,-44.757626481128
ieee8500,l2841641,2,1.013984683144,-165.232474584730
ieee8500,l2841645,3,1.020467374583,79.443985880443
ieee8500,l2841648,1,0.990566484202,-44.760435465624
ieee8500,l2842329,3,1.036272828442,82.095380432363
ieee8500,l2842330,3,1.041286774288,81.193049655237
ieee8500,l2842379,1,0.996201580343,-38.758834434894
ieee8500,l2842383,1,1.005265114188,-37.763826194624
ieee8500,l2842383,2,1.012944935720,-157.975224978716
ieee8500,l2842383,3,1.039426658868,83.181290278423
ieee8500,l2842384,1,1.003352600194,-37.909575705839
ieee8500,l2842384,2,1.011424470503,-158.146476262929
ieee8500,l2842384,3,1.039029479741,83.062197929667
ieee8500,l2842390,3,1.019686108409,81.470400572313
ieee8500,l2851933,1,0.998759612768,-44.635002292593
ieee8500,l2851933,2,1.023876033781,-166.208946630778
ieee8500,l2851933,3,1.017241554394,79.795901523080
ieee8500,l2857591,1,1.009472479858,-44.843299557369
ieee8500,l2858163,1,0.997435989647,-44.911871559505
ieee8500,l2858166,1,1.029411615477,-44.336470301009
ieee8500,l2858166,2,1.032466895646,-166.302519668499
ieee8500,l2858166,3,1.039183631378,79.699807144989
ieee8500,l2858175,1,0.987596830476,-45.094735546593
ieee8500,l2858200,1,1.008873257341,-37.477002711952
ieee8500,l2859391,2,1.011140490397,-167.073877808736
ieee8500,l2859403,1,0.954830565259,-40.611726235987
ieee8500,l2859403,2,0.983763116165,-161.604651314482
ieee8500,l2859403,3,1.036205117063,81.686921438482
ieee8500,l2860477,1,1.010964582686,-44.794148455138
ieee8500,l2860478,2,1.006832330905,-167.129016914328
ieee8500,l2860479,2,1.005277777975,-167.155138869152
ieee8500,l2860480,2,0.988632742571,-166.976900106450
ieee8500,l2860481,3,1.040195265168,79.652682048920
ieee8500,l2860482,1,1.017068728446,-44.399857560054
ieee8500,l2860483,2,0.993132943346,-166.910284641561
ieee8500,l2860484,2,0.996684537933,-166.857558548627
ieee8500,l2860485,2,1.012524742909,-167.040514364075
ieee8500,l2860486,3,1.027256884871,80.404967974636
ieee8500,l2860487,3,1.032811543618,80.442317849288
ieee8500,l2860488,2,0.974739454690,-162.024296456737
ieee8500,l2860489,1,0.995531958411,-40.717820060412
ieee8500,l2860490,1,1.013456986944,-40.768048763681
ieee8500,l2860490,2,1.007481500070,-161.583958504300
ieee8500,l2860490,3,1.032102603706,79.894623269798
ieee8500,l2860491,1,1.009246914950,-40.767630932177
ieee8500,l2860491,2,1.003539221554,-161.627813686193
ieee8500,l2860491,3,1.031018211963,79.913687367608
ieee8500,l2860492,3,1.032503198699,79.952050159282
ieee8500,l2860493,1,0.997755639342,-44.661768837561
ieee8500,l2860499,2,1.013784153811,-165.235964655773
ieee8500,l2860500,2,0.993477892212,-166.904444288699
ieee8500,l2860501,2,0.997128650927,-166.851100099329
ieee8500,l2860504,1,0.997854423717,-44.659279605886
ieee8500,l2860506,2,1.012439591824,-167.042651021211
ieee8500,l2861157,3,1.032808366630,84.889152761207
ieee8500,l2861158,3,1.025269164334,84.766402211235
ieee8500,l2861197,3,1.036262120521,82.060515665499
ieee8500,l2861218,1,0.996370028805,-38.824728891272
ieee8500,l2861218,2,0.999600475331,-159.147991304413
ieee8500,l2861218,3,1.032680798844,81.886747244590
ieee8500,l2861219,2,1.002740682573,-158.937665272365
ieee8500,l2861222,1,0.995546978778,-38.640884649734
ieee8500,l2861223,2,1.026056485962,-156.445270583814
ieee8500,l2862616,3,1.015502538560,78.849106644813
ieee8500,l2875754,3,1.027799699386,81.590438729252
ieee8500,l2876796,1,1.015480164139,-44.091365716821
ieee8500,l2876797,1,1.016142152341,-44.111325533177
ieee8500,l2876797,2,0.999710786780,-166.812820573257
ieee8500,l2876797,3,1.042215368489,79.650991877341
ieee8500,l2876798,1,1.015295183561,-44.360603952338
ieee8500,l2876798,2,1.010270186409,-166.637797138858
ieee8500,l2876798,3,1.022661165858,79.210542564869
ieee8500,l2876812,1,0.988350017411,-45.075473317999
ieee8500,l2876813,1,1.010891284339,-44.818930539187
ieee8500,l2876814,1,1.003433106335,-44.853041617920
ieee8500,l2876814,2,1.012447831192,-167.054260595516
ieee8500,l2876814,3,1.031220830991,79.560531621848
ieee8500,l2876846,2,0.993360226827,-166.905990026520
...