ipss.plugin.3phase/testData/feeder/IEEE8500/IEEE8500_Curr_Elem.txt

CIRCUIT ELEMENT CURRENTS

(Currents into element from indicated bus)

Power Delivery Elements

  Bus Phase    Magnitude, A     Angle      (Real)   +j  (Imag)

ELEMENT = "Vsource.source"
SOURCEBUS     1           59.693 /_  170.9 =    -58.942 +j    9.4394
SOURCEBUS     2           54.444 /_   53.0 =     32.768 +j    43.479
SOURCEBUS     3           59.037 /_  -63.7 =     26.174 +j   -52.918
------------
SOURCEBUS     0           59.693 /_   -9.1 =     58.942 +j   -9.4394
SOURCEBUS     0           54.444 /_ -127.0 =    -32.768 +j   -43.479
SOURCEBUS     0           59.037 /_  116.3 =    -26.174 +j    52.918

ELEMENT = "Line.hvmv_sub_connector"
_HVMV_SUB_LSB     1           550.82 /_  -38.0 =     434.08 +j   -339.09
_HVMV_SUB_LSB     2           531.02 /_ -159.0 =    -495.79 +j   -190.18
_HVMV_SUB_LSB     3           499.27 /_   87.6 =     21.284 +j    498.82
------------
HVMV_SUB_48332     1           550.82 /_  142.0 =    -434.08 +j    339.09
HVMV_SUB_48332     2           531.02 /_   21.0 =     495.79 +j    190.18
HVMV_SUB_48332     3           499.27 /_  -92.4 =    -21.284 +j   -498.82

ELEMENT = "Line.ln5502549-1"
M1009763     2           1.9644 /_  178.0 =    -1.9632 +j   0.06873
------------
L2673322     2           1.9645 /_   -2.0 =     1.9633 +j -0.069274

ELEMENT = "Line.ln6259988-1"
M1069148     3           1.4402 /_   65.6 =    0.59587 +j    1.3112
------------
L2673309     3           1.4407 /_ -114.5 =   -0.59774 +j   -1.3108

ELEMENT = "Line.ln6077796-1"
M1069588     2           1.6838 /_  179.8 =    -1.6837 +j 0.0060388
------------
L2804270     2           1.6838 /_   -0.2 =     1.6838 +j -0.0062307

ELEMENT = "Line.ln5835135-2"
M3036164     2           16.614 /_  178.3 =    -16.607 +j   0.49306
------------
L2935553     2           16.615 /_   -1.7 =     16.607 +j  -0.49385

ELEMENT = "Line.ln5896826-1"
M1209749     2          0.82865 /_ -171.2 =   -0.81889 +j  -0.12679
------------
L2748840     2           0.8296 /_    8.6 =    0.82036 +j   0.12342

ELEMENT = "Line.ln5714038-1"
M1108264     2           2.1925 /_ -175.0 =    -2.1841 +j  -0.19184
------------
M1108263     2            2.193 /_    5.0 =     2.1847 +j   0.19017

ELEMENT = "Line.ln5653457-1"
L3085398     1           20.072 /_  -59.7 =     10.133 +j   -17.326
L3085398     2           42.142 /_  178.0 =    -42.118 +j    1.4398
L3085398     3            15.86 /_   64.8 =     6.7524 +j    14.351
------------
M1026891     1           20.072 /_  120.3 =    -10.132 +j    17.328
M1026891     2           42.143 /_   -2.0 =     42.118 +j    -1.442
M1026891     3            15.86 /_ -115.2 =    -6.7547 +j    -14.35

ELEMENT = "Line.ln5835173-1"
L3216367     1           28.586 /_  -59.0 =     14.702 +j   -24.516
L3216367     2           63.514 /_  178.2 =    -63.483 +j    1.9859
L3216367     3           47.846 /_   64.2 =     20.798 +j    43.089
------------
M1069468     1           28.587 /_  120.9 =    -14.701 +j    24.517
M1069468     2           63.515 /_   -1.8 =     63.484 +j   -1.9871
M1069468     3           47.846 /_ -115.8 =    -20.799 +j   -43.089

ELEMENT = "Line.ln6321415-1"
M1142800     2            1.416 /_ -173.5 =     -1.407 +j  -0.15968
------------
M1142799     2           1.4165 /_    6.4 =     1.4076 +j   0.15815

ELEMENT = "Line.ln5565092-1"
M1047592     3           2.1546 /_   64.7 =    0.91993 +j    1.9484
------------
P827512     3           2.1546 /_ -115.3 =   -0.91999 +j   -1.9483

ELEMENT = "Line.ln6073648-1"
M1047339     1           3.0708 /_  -55.6 =      1.733 +j   -2.5351
------------
P895104     1           3.0709 /_  124.4 =    -1.7329 +j    2.5352

ELEMENT = "Line.ln5774457-1"
M1026915     1           30.135 /_  -59.8 =     15.168 +j    -26.04
M1026915     2           24.055 /_  178.2 =    -24.043 +j   0.73535
M1026915     3           22.812 /_   64.8 =     9.7297 +j    20.633
------------
M1026920     1           30.136 /_  120.2 =    -15.168 +j     26.04
M1026920     2           24.055 /_   -1.8 =     24.044 +j  -0.73646
M1026920     3           22.812 /_ -115.2 =    -9.7308 +j   -20.633

ELEMENT = "Line.ln5534966-3"
N1138596     1           11.122 /_  -59.3 =     5.6855 +j   -9.5588
------------
L3254207     1           11.122 /_  120.7 =    -5.6852 +j    9.5591

ELEMENT = "Line.ln5859996-1"
M1069464     2           2.8091 /_  178.5 =     -2.808 +j  0.075479
------------
P873787     2           2.8091 /_   -1.5 =     2.8081 +j -0.075587

ELEMENT = "Line.ln6138610-2"
N1144665     1           119.32 /_  -59.3 =     60.907 +j    -102.6
N1144665     2           91.054 /_  178.5 =    -91.021 +j    2.4459
N1144665     3           103.47 /_   64.6 =     44.422 +j    93.453
------------
M1047515     1           119.32 /_  120.7 =    -60.907 +j     102.6
M1047515     2           91.054 /_   -1.5 =     91.021 +j   -2.4466
M1047515     3           103.47 /_ -115.4 =    -44.422 +j   -93.453

ELEMENT = "Line.ln6258435-3"
N1137002     1           2.5349 /_  -59.2 =     1.2967 +j   -2.1782
------------
M1047707     1           2.5353 /_  120.7 =    -1.2955 +j    2.1794

ELEMENT = "Line.ln5804790-1"
L2729406     3           1.4709 /_   66.5 =     0.5866 +j    1.3488
------------
L2897768     3           1.4717 /_ -113.6 =   -0.58993 +j   -1.3483

ELEMENT = "Line.ln6900591-14"
L3649301     1           4.5835 /_  -59.6 =     2.3197 +j   -3.9531
------------
L3649302     1           4.5838 /_  120.4 =    -2.3189 +j    3.9539

ELEMENT = "Line.ln6409873-1"
L2970842     2           10.556 /_ -175.0 =    -10.516 +j  -0.92538
------------
M1089113     2           10.557 /_    5.0 =     10.516 +j   0.92417

ELEMENT = "Line.ln6014135-1"
M1047312     1           9.6593 /_  -55.7 =     5.4461 +j   -7.9776
------------
P893163     1           9.6593 /_  124.3 =     -5.446 +j    7.9776

ELEMENT = "Line.ln6077784-1"
L2822871     1           58.037 /_  -59.7 =     29.263 +j    -50.12
L2822871     2           69.683 /_  178.1 =    -69.646 +j     2.269
L2822871     3           42.403 /_   64.8 =     18.056 +j    38.367
------------
M1026872     1           58.038 /_  120.3 =    -29.262 +j    50.121
M1026872     2           69.684 /_   -1.9 =     69.647 +j   -2.2708
M1026872     3           42.404 /_ -115.2 =    -18.058 +j   -38.366

ELEMENT = "Line.ln5744338-1"
M1026312     2           27.281 /_ -176.9 =    -27.241 +j   -1.4798
------------
L2973163     2           27.281 /_    3.1 =     27.241 +j     1.479

ELEMENT = "Line.ln6991381-4"
L3728038     1           5.1018 /_  -59.4 =     2.5964 +j   -4.3917
------------
L3728039     1           5.1022 /_  120.6 =    -2.5954 +j    4.3927

ELEMENT = "Line.ln5774480-1"
M1069567     2           31.842 /_  179.8 =    -31.842 +j   0.10312
------------
M1069582     2           31.842 /_   -0.2 =     31.842 +j  -0.10569

ELEMENT = "Line.ln5986938-3"
N1140830     1           5.4558 /_  -59.4 =     2.7748 +j   -4.6975
------------
L3216351     1           5.4559 /_  120.6 =    -2.7747 +j    4.6976

ELEMENT = "Line.ln5894230-1"
L2952007     3           1.4477 /_   69.9 =    0.49773 +j    1.3595
------------
L2861158     3           1.4483 /_ -110.2 =   -0.49995 +j   -1.3593

ELEMENT = "Line.ln5683858-3"
N1140827     1           2.6061 /_  -59.6 =       1.32 +j    -2.247
N1140827     2           4.1732 /_  178.9 =    -4.1724 +j  0.080518
N1140827     3           2.9359 /_   64.9 =     1.2451 +j    2.6588
------------
M1026726     1           2.6062 /_  120.4 =    -1.3197 +j    2.2473
M1026726     2           4.1733 /_   -1.1 =     4.1726 +j -0.080972
M1026726     3            2.936 /_ -115.1 =    -1.2456 +j   -2.6587

ELEMENT = "Line.ln5920279-5"
L2730106     1           349.47 /_  -49.4 =     227.24 +j   -265.51
L2730106     2           325.71 /_ -171.1 =    -321.74 +j   -50.644
L2730106     3           224.93 /_   79.4 =     41.381 +j     221.1
------------
N1142099     1           349.47 /_  130.6 =    -227.24 +j    265.51
N1142099     2           325.71 /_    8.9 =     321.74 +j    50.644
N1142099     3           224.93 /_ -100.6 =    -41.381 +j    -221.1

ELEMENT = "Line.ln6439600-1"
M1026658     1           1.2978 /_  -59.6 =    0.65699 +j   -1.1192
------------
L3172805     1           1.2983 /_  120.3 =   -0.65567 +j    1.1206

ELEMENT = "Line.ln5589097-1"
P895112     1           1.9658 /_  -53.7 =     1.1644 +j   -1.5839
------------
L3048962     1           1.9659 /_  126.3 =    -1.1641 +j    1.5842

ELEMENT = "Line.ln5651975-1"
L2991914     1           61.701 /_  -59.4 =     31.366 +j   -53.134
L2991914     2           14.867 /_  179.2 =    -14.866 +j   0.20798
L2991914     3           33.169 /_   65.0 =     14.006 +j    30.067
------------
M1047503     1           61.702 /_  120.6 =    -31.365 +j    53.135
M1047503     2           14.867 /_   -0.8 =     14.866 +j  -0.20892
M1047503     3           33.169 /_ -115.0 =    -14.007 +j   -30.067

ELEMENT = "Line.ln5865236-1"
M1047751     1           2.5471 /_  -59.0 =     1.3106 +j   -2.1841
------------
L2973154     1           2.5472 /_  121.0 =    -1.3105 +j    2.1842

ELEMENT = "Line.ln5593232-1"
L3010565     3           1.4407 /_   65.6 =    0.59559 +j    1.3118
------------
L2897775     3           1.4413 /_ -114.5 =   -0.59811 +j   -1.3114

ELEMENT = "Line.ln5740283-1"
M1125955     3           1.7147 /_   67.2 =    0.66486 +j    1.5806
------------
M1125957     3           1.7147 /_ -112.8 =   -0.66498 +j   -1.5806

ELEMENT = "Line.ln6106559-1"
M1069640     2           3.9437 /_  179.8 =    -3.9437 +j  0.014329
------------
L2804269     2           3.9442 /_   -0.2 =     3.9441 +j -0.016021

ELEMENT = "Line.ln5714056-3"
M1026702     1           51.845 /_  -59.5 =     26.326 +j   -44.664
M1026702     2           11.408 /_  179.1 =    -11.407 +j   0.17325
M1026702     3            25.36 /_   65.0 =     10.715 +j    22.986
------------
N1139551     1           51.846 /_  120.5 =    -26.323 +j    44.667
N1139551     2           11.409 /_   -0.9 =     11.408 +j  -0.17663
N1139551     3           25.361 /_ -115.0 =    -10.718 +j   -22.985

ELEMENT = "Line.ln5985355-3"
N1136355     2           55.554 /_  179.9 =    -55.554 +j   0.14246
------------
L2783231     2           55.554 /_   -0.1 =     55.554 +j  -0.14368

ELEMENT = "Line.ln5531956-1"
L2748143     1            1.289 /_  -58.0 =    0.68305 +j   -1.0932
------------
L3251854     1           1.2893 /_  121.9 =   -0.68224 +j    1.0941

ELEMENT = "Line.ln5650048-1"
M1069610     2           1.4078 /_  179.8 =    -1.4078 +j 0.0046825
------------
M1069600     2           1.4081 /_   -0.2 =     1.4081 +j -0.0057312

ELEMENT = "Line.ln6290203-1"
M1069424     1           21.965 /_  -59.0 =       11.3 +j   -18.836
M1069424     2           54.799 /_  178.2 =     -54.77 +j    1.7639
M1069424     3           39.133 /_   64.2 =     17.031 +j    35.233
------------
L2935549     1           21.966 /_  121.0 =    -11.298 +j    18.838
L2935549     2           54.799 /_   -1.8 =     54.771 +j   -1.7665
L2935549     3           39.134 /_ -115.8 =    -17.033 +j   -35.232

ELEMENT = "Line.ln6134414-1"
P895089     3           2.8459 /_   65.7 =     1.1693 +j    2.5945
------------
L3235242     3           2.8462 /_ -114.3 =    -1.1704 +j   -2.5943

ELEMENT = "Line.ln6259998-2"
M1026795     3            1.732 /_   64.8 =    0.73725 +j    1.5672
------------
N1140522     3            1.732 /_ -115.2 =   -0.73749 +j   -1.5672

ELEMENT = "Line.ln6078767-1"
L3030199     1           106.84 /_  -30.8 =     91.735 +j   -54.761
L3030199     2            126.1 /_ -155.6 =    -114.87 +j   -52.026
L3030199     3            155.3 /_   82.1 =     21.282 +j    153.84
------------
M1125934     1           106.84 /_  149.2 =    -91.734 +j    54.762
M1125934     2            126.1 /_   24.4 =     114.87 +j    52.025
M1125934     3            155.3 /_  -97.9 =    -21.283 +j   -153.84

ELEMENT = "Line.ln6017300-1"
M1069189     3          0.86014 /_   65.6 =    0.35584 +j   0.78309
------------
L2860487     3          0.86054 /_ -114.5 =   -0.35736 +j  -0.78283

ELEMENT = "Line.ln8979257-2"
221-312488     1           1.3557 /_  -55.1 =    0.77637 +j   -1.1114
221-312488     2           1.4465 /_ -176.1 =    -1.4432 +j -0.098824
221-312488     3           1.4324 /_   67.1 =    0.55663 +j    1.3198
------------
M1089183     1           1.3561 /_  124.9 =   -0.77527 +j    1.1126
M1089183     2            1.447 /_    3.9 =     1.4437 +j  0.097164
M1089183     3           1.4329 /_ -112.9 =   -0.55846 +j   -1.3196

ELEMENT = "Line.ln81048109-1"
M1108464     2           4.3899 /_ -176.1 =    -4.3798 +j  -0.29777
------------
L3102286     2           4.3918 /_    3.8 =     4.3822 +j   0.29074

ELEMENT = "Line.293471"
F739845     1           1.2907 /_  -55.7 =    0.72719 +j   -1.0664
F739845     2           1.4265 /_ -176.6 =     -1.424 +j -0.083685
F739845     3           1.4426 /_   65.0 =    0.60972 +j    1.3074
------------
293471     1           1.2909 /_  124.3 =   -0.72669 +j     1.067
293471     2           1.4267 /_    3.3 =     1.4243 +j  0.082908
293471     3           1.4427 /_ -115.0 =   -0.61052 +j   -1.3072

ELEMENT = "Line.ln5534965-2"
P827499     1           1.2768 /_  -59.3 =    0.65155 +j    -1.098
------------
N1139254     1           1.2768 /_  120.7 =   -0.65148 +j    1.0981

ELEMENT = "Line.ln5655683-1"
M1026657     1            20.45 /_  -59.5 =     10.366 +j   -17.629
------------
M1026656     1            20.45 /_  120.5 =    -10.366 +j    17.629

ELEMENT = "Line.ln5686247-1"
M1108299     2           1.9912 /_ -174.2 =     -1.981 +j  -0.20178
------------
M1108300     2           1.9913 /_    5.8 =      1.981 +j   0.20168

ELEMENT = "Line.ln6048642-1"
L3198355     2        0.0018963 /_  -69.4 =  0.00066818 +j -0.0017746
------------
L2805037     2       9.0949E-13 /_  -90.0 =          0 +j -9.0949E-13

ELEMENT = "Line.ln5928544-3"
N1137994     3           14.525 /_   64.4 =     6.2649 +j    13.104
------------
M1069484     3           14.525 /_ -115.6 =    -6.2658 +j   -13.104

ELEMENT = "Line.ln6108172-1"
L2860504     1           2.5945 /_  -59.5 =     1.3152 +j   -2.2364
------------
L2860493     1           2.5954 /_  120.4 =    -1.3126 +j     2.239

ELEMENT = "Line.ln5532754-1"
M1026783     1           56.982 /_  -59.5 =     28.951 +j   -49.079
M1026783     2           14.871 /_  179.1 =     -14.87 +j   0.22221
M1026783     3           27.683 /_   65.0 =     11.682 +j    25.097
------------
M1026780     1           56.982 /_  120.5 =    -28.951 +j     49.08
M1026780     2           14.872 /_   -0.9 =      14.87 +j  -0.22268
M1026780     3           27.683 /_ -115.0 =    -11.682 +j   -25.097

ELEMENT = "Line.ln5591834-1"
P895111     3           3.7198 /_   67.5 =     1.4205 +j    3.4379
------------
L2895496     3           3.7201 /_ -112.5 =    -1.4218 +j   -3.4377

ELEMENT = "Line.ln6347196-2"
N1140819     1           28.029 /_  -59.5 =     14.239 +j   -24.144
N1140819     2            10.58 /_  179.1 =    -10.579 +j   0.16358
N1140819     3           25.362 /_   65.0 =     10.722 +j    22.984
------------
M1026700     1            28.03 /_  120.5 =    -14.238 +j    24.144
M1026700     2            10.58 /_   -0.9 =     10.579 +j  -0.16429
M1026700     3           25.362 /_ -115.0 =    -10.723 +j   -22.984

ELEMENT = "Line.ln5532741-1"
M1089173     3           8.9756 /_   66.5 =     3.5771 +j     8.232
------------
L2935551     3           8.9759 /_ -113.5 =    -3.5781 +j   -8.2319

ELEMENT = "Line.ln5804803-1"
M1026344     1          0.77619 /_  -55.3 =     0.4423 +j  -0.63784
------------
M1026364     1          0.77751 /_  124.4 =   -0.43892 +j   0.64177

ELEMENT = "Line.ln6169248-1"
L2879070     1           111.71 /_  -59.7 =     56.387 +j   -96.429
L2879070     2           74.528 /_  178.2 =     -74.49 +j    2.3773
L2879070     3           45.268 /_   64.8 =     19.252 +j     40.97
------------
L3216345     1           111.71 /_  120.3 =    -56.385 +j    96.431
L3216345     2           74.529 /_   -1.8 =     74.491 +j     -2.38
L3216345     3           45.268 /_ -115.2 =    -19.255 +j   -40.969

ELEMENT = "Line.ln5532786-2"
M1069428     2            2.254 /_  178.4 =    -2.2531 +j  0.063849
------------
N1139257     2           2.2541 /_   -1.6 =     2.2531 +j -0.064134

ELEMENT = "Line.ln5744339-1"
L2991919     1           16.527 /_  -55.6 =     9.3291 +j   -13.642
------------
M1026361     1           16.527 /_  124.4 =    -9.3281 +j    13.643

ELEMENT = "Line.ln5531255-3"
N1147857     1           16.984 /_  -59.8 =      8.548 +j   -14.676
------------
M1009742     1           16.984 /_  120.2 =    -8.5473 +j    14.676

ELEMENT = "Line.ln5926308-2"
Q14412     1           40.378 /_  -55.6 =     22.825 +j   -33.308
Q14412     2            49.11 /_ -176.8 =    -49.032 +j   -2.7756
Q14412     3           19.169 /_   65.2 =     8.0398 +j    17.402
------------
M1047325     1           40.378 /_  124.4 =    -22.824 +j    33.309
M1047325     2            49.11 /_    3.2 =     49.032 +j    2.7747
M1047325     3           19.169 /_ -114.8 =    -8.0407 +j   -17.401

ELEMENT = "Line.ln5683856-3"
N1139263     1           1.2748 /_  -59.4 =    0.64979 +j   -1.0968
------------
L3048227     1           1.2749 /_  120.6 =   -0.64947 +j    1.0971

ELEMENT = "Line.ln6171502-1"
P827506     1           2.0372 /_  -59.3 =      1.041 +j   -1.7511
------------
M1069469     1           2.0372 /_  120.7 =    -1.0409 +j    1.7512

ELEMENT = "Line.ln5593228-1"
M1027019     2           1.4029 /_  178.0 =     -1.402 +j  0.048198
------------
L2785522     2           1.4031 /_   -2.0 =     1.4023 +j -0.049249

ELEMENT = "Line.ln6380800-1"
L3216338     2           1.4145 /_  177.9 =    -1.4136 +j  0.051662
------------
L2973146     2           1.4148 /_   -2.1 =     1.4138 +j -0.052674

ELEMENT = "Line.ln6199525-2"
M3037452     1          0.51919 /_  -55.6 =    0.29328 +j  -0.42843
------------
L2973164     1          0.51951 /_  124.3 =   -0.29248 +j   0.42935

ELEMENT = "Line.ln5772710-2"
L3120376     1           10.229 /_  -59.7 =     5.1588 +j   -8.8324
------------
M1026925     1           10.229 /_  120.3 =    -5.1577 +j    8.8335

ELEMENT = "Line.ln8961760-1"
M1047612     3           5.0231 /_   65.0 =      2.124 +j    4.5519
------------
P828360     3           5.0232 /_ -115.0 =    -2.1244 +j   -4.5518

ELEMENT = "Line.ln6047556-1"
M1089195     3           1.4232 /_   65.7 =    0.58548 +j    1.2972
------------
L3141393     3           1.4237 /_ -114.4 =   -0.58753 +j   -1.2968

ELEMENT = "Line.ln6138603-1"
M1026946     2           2.2369 /_  178.2 =    -2.2357 +j  0.071313
------------
M1026940     2           2.2374 /_   -1.9 =     2.2362 +j -0.073495

ELEMENT = "Line.ln6108139-1"
M1047471     2          0.86176 /_  177.9 =   -0.86121 +j  0.030865
------------
L3216349     2          0.86185 /_   -2.1 =    0.86128 +j -0.031177

ELEMENT = "Line.ln6388581-2"
M1047401     1          0.78112 /_  -59.2 =    0.39965 +j  -0.67114
------------
L2748132     1          0.78136 /_  120.7 =   -0.39898 +j   0.67181

ELEMENT = "Line.ln5774460-1"
L3122820     1          0.77956 /_  -59.6 =    0.39406 +j  -0.67263
------------
L3141398     1          0.77983 /_  120.3 =   -0.39332 +j   0.67337

ELEMENT = "Line.ln5624387-1"
M1108360     3           2.1907 /_   66.6 =    0.87153 +j    2.0099
------------
L3048968     3           2.1909 /_ -113.5 =   -0.87248 +j   -2.0097

ELEMENT = "Line.ln6137087-1"
L2801950     3           11.562 /_   65.5 =     4.7881 +j    10.524
------------
M1069224     3           11.562 /_ -114.5 =    -4.7887 +j   -10.524

ELEMENT = "Line.ln6077809-1"
L2766746     3           14.557 /_   64.6 =     6.2526 +j    13.146
------------
M1027073     3           14.558 /_ -115.4 =    -6.2545 +j   -13.146

ELEMENT = "Line.ln6440079-1"
L2895496     3           3.7201 /_   67.5 =     1.4218 +j    3.4377
------------
M1142873     3           3.7203 /_ -112.5 =    -1.4227 +j   -3.4376

ELEMENT = "Line.ln5804794-1"
M1069181     1           11.488 /_  -55.3 =      6.544 +j   -9.4418
------------
L2973151     1           11.488 /_  124.7 =    -6.5432 +j    9.4428

ELEMENT = "Line.ln5654484-1"
L3179682     3           1.4399 /_   66.7 =    0.56977 +j    1.3224
------------
L2786274     3           1.4401 /_ -113.3 =   -0.57026 +j   -1.3223

ELEMENT = "Line.ln5774465-1"
L3066816     1           2.6046 /_  -59.2 =     1.3319 +j   -2.2383
------------
M1026667     1           2.6051 /_  120.7 =    -1.3304 +j    2.2398

ELEMENT = "Line.ln5473349-1"
M1108529     1           299.34 /_  -49.0 =     196.28 +j   -226.01
M1108529     2           303.15 /_ -171.0 =     -299.4 +j   -47.499
M1108529     3           210.64 /_   80.2 =     35.822 +j    207.58
------------
M1108532     1           299.34 /_  131.0 =    -196.28 +j    226.01
M1108532     2           303.15 /_    9.0 =      299.4 +j    47.498
M1108532     3           210.64 /_  -99.8 =    -35.823 +j   -207.58

ELEMENT = "Line.ln6169253-1"
L2766723     1           1.2977 /_  -59.6 =    0.65645 +j   -1.1194
------------
L3122822     1            1.298 /_  120.3 =   -0.65576 +j    1.1201

ELEMENT = "Line.ln6350536-1"
L2673312     1          0.77615 /_  -59.7 =     0.3912 +j  -0.67035
------------
L3235247     1           0.7769 /_  120.1 =   -0.38914 +j   0.67242

ELEMENT = "Line.ln6048523-1"
M1166391     3           20.845 /_   69.9 =     7.1507 +j     19.58
------------
L3254873     3           20.846 /_ -110.1 =    -7.1526 +j    -19.58

ELEMENT = "Line.ln5594152-1"
L2861157     3           23.145 /_   70.0 =     7.9225 +j    21.747
------------
P901951     3           23.146 /_ -110.0 =    -7.9247 +j   -21.747

ELEMENT = "Line.ln5865248-1"
M1047346     1           47.284 /_  -55.6 =     26.726 +j   -39.007
M1047346     2           51.236 /_ -176.7 =    -51.153 +j   -2.9102
M1047346     3           19.168 /_   65.2 =     8.0322 +j    17.403
------------
M1047345     1           47.285 /_  124.4 =    -26.725 +j    39.008
M1047345     2           51.236 /_    3.3 =     51.154 +j    2.9091
M1047345     3           19.168 /_ -114.8 =    -8.0333 +j   -17.403

ELEMENT = "Line.ln6046143-1"
L2989596     2          0.55825 /_  179.9 =   -0.55825 +j 0.00072483
------------
L2822873     2          0.55865 /_   -0.2 =    0.55864 +j -0.0022152

ELEMENT = "Line.ln5803287-1"
M1108328     3           2.9044 /_   66.7 =     1.1502 +j    2.6669
------------
L2875754     3           2.9045 /_ -113.3 =    -1.1506 +j   -2.6669

ELEMENT = "Line.ln5589094-1"
L2786204     3           31.752 /_   70.0 =     10.846 +j    29.842
------------
M1209819     3           31.752 /_ -110.0 =    -10.847 +j   -29.842

ELEMENT = "Line.ln5954983-1"
P901972     1           16.984 /_  -59.8 =     8.5472 +j   -14.676
------------
M1009726     1           16.984 /_  120.2 =    -8.5461 +j    14.677

ELEMENT = "Line.ln5924696-2"
M1047702     1          0.75861 /_  -59.2 =    0.38845 +j  -0.65161
------------
N1137001     1          0.75881 /_  120.7 =   -0.38791 +j   0.65216

ELEMENT = "Line.ln6506311-4"
L2767340     1      0.000048616 /_   51.2 =  0.000030456 +j 0.000037894
L2767340     2      0.000051964 /_  -68.2 =  0.000019287 +j -0.000048252
L2767340     3          0.85738 /_   67.0 =    0.33569 +j   0.78893
------------
M3037449     1       2.9885E-10 /_  -51.2 =  1.8736E-10 +j -2.3283E-10
M3037449     2       3.7751E-10 /_  -27.6 =  3.3469E-10 +j -1.7462E-10
M3037449     3          0.85739 /_ -113.1 =   -0.33574 +j  -0.78892

ELEMENT = "Line.ln5653493-1"
M1047457     2           17.117 /_  178.0 =    -17.107 +j    0.5877
------------
L2710546     2           17.117 /_   -2.0 =     17.107 +j  -0.58838

ELEMENT = "Line.ln5684836-1"
L2674027     1           329.28 /_  -49.0 =     215.91 +j   -248.61
L2674027     2           322.09 /_ -171.0 =    -318.11 +j   -50.474
L2674027     3           223.82 /_   79.5 =     40.943 +j    220.04
------------
L2692633     1           329.28 /_  131.0 =    -215.91 +j    248.61
L2692633     2           322.09 /_    9.0 =     318.11 +j    50.471
L2692633     3           223.82 /_ -100.5 =    -40.945 +j   -220.04

ELEMENT = "Line.ln5715016-3"
N1142108     1           0.7776 /_  -53.8 =    0.45911 +j   -0.6276
------------
L2674051     1          0.77793 /_  126.1 =    -0.4583 +j    0.6286

ELEMENT = "Line.ln6138614-1"
M1069135     1           56.511 /_   -9.3 =     55.775 +j   -9.0907
M1069135     2           57.135 /_ -131.5 =    -37.866 +j   -42.786
M1069135     3           43.468 /_  138.4 =    -32.498 +j    28.868
------------
R18242     1            56.51 /_  170.7 =    -55.773 +j    9.0922
R18242     2           57.134 /_   48.5 =     37.867 +j    42.784
R18242     3           43.466 /_  -41.6 =     32.496 +j   -28.868

ELEMENT = "Line.ln6077781-2"
M1047534     1           261.28 /_  -59.4 =     132.88 +j   -224.97
M1047534     2           239.28 /_  178.3 =    -239.18 +j    6.9527
M1047534     3           194.52 /_   64.7 =     82.997 +j    175.93
------------
N1136663     1           261.28 /_  120.6 =    -132.88 +j    224.97
N1136663     2           239.28 /_   -1.7 =     239.18 +j   -6.9561
N1136663     3           194.52 /_ -115.3 =    -83.001 +j   -175.93

ELEMENT = "Line.ln5675121-1"
M1108508     3          0.56785 /_   66.1 =    0.22977 +j   0.51928
------------
L3097861     3          0.56828 /_ -114.0 =   -0.23143 +j  -0.51902

ELEMENT = "Line.ln5773046-1"
M1069560     2           34.661 /_  179.8 =    -34.661 +j   0.10979
------------
M1069567     2           34.661 /_   -0.2 =     34.661 +j  -0.11116

ELEMENT = "Line.ln6380809-2"
L2973153     1           23.103 /_  -59.0 =     11.891 +j   -19.808
L2973153     2           71.512 /_  178.3 =     -71.48 +j    2.1261
L2973153     3           8.0019 /_   65.0 =     3.3811 +j    7.2525
------------
N1136998     1           23.103 /_  121.0 =    -11.891 +j    19.808
N1136998     2           71.512 /_   -1.7 =      71.48 +j   -2.1264
N1136998     3            8.002 /_ -115.0 =    -3.3814 +j   -7.2524

ELEMENT = "Line.ln6018326-1"
L2898515     3           1.7076 /_   68.8 =    0.61799 +j    1.5918
------------
M1166387     3           1.7078 /_ -111.3 =   -0.61904 +j   -1.5917

ELEMENT = "Line.ln5472356-1"
M1047442     2          0.57012 /_  178.1 =   -0.56982 +j  0.018606
------------
L3235250     2           0.5704 /_   -2.0 =    0.57006 +j -0.019677

ELEMENT = "Line.ln6139641-1"
M1142871     1           398.09 /_  -50.1 =     255.14 +j   -305.58
M1142871     2           382.04 /_ -171.8 =    -378.12 +j   -54.559
M1142871     3           265.47 /_   77.5 =     57.395 +j    259.19
------------
M1142874     1           398.09 /_  129.9 =    -255.13 +j    305.58
M1142874     2           382.04 /_    8.2 =     378.12 +j    54.558
M1142874     3           265.47 /_ -102.5 =    -57.396 +j   -259.19

ELEMENT = "Line.ln6018341-1"
L2955081     1              101 /_  -29.4 =     87.956 +j    -49.65
L2955081     2           114.97 /_ -153.8 =    -103.16 +j    -50.77
L2955081     3           150.44 /_   82.6 =     19.346 +j    149.19
------------
M1108315     1              101 /_  150.6 =    -87.955 +j    49.653
M1108315     2           114.97 /_   26.2 =     103.16 +j    50.767
M1108315     3           150.44 /_  -97.4 =    -19.349 +j   -149.19

ELEMENT = "Line.ln6017302-1"
L2973162     1           2.0748 /_  -55.4 =     1.1772 +j   -1.7085
L2973162     2           39.411 /_ -176.8 =    -39.351 +j   -2.1734
L2973162     3          0.86107 /_   65.5 =    0.35769 +j   0.78326
------------
M1026333     1           2.0752 /_  124.5 =    -1.1764 +j    1.7095
M1026333     2           39.412 /_    3.2 =     39.352 +j    2.1721
M1026333     3          0.86135 /_ -114.6 =   -0.35909 +j  -0.78292

ELEMENT = "Line.ln6199505-1"
M1009832     2          0.56305 /_  177.9 =   -0.56268 +j  0.020403
------------
L2860479     2          0.56321 /_   -2.1 =    0.56281 +j -0.021009

ELEMENT = "Line.ln5682327-1"
M1026854     1           19.296 /_  -59.7 =     9.7416 +j   -16.656
------------
P901894     1           19.296 /_  120.3 =    -9.7415 +j    16.656

ELEMENT = "Line.ln6290243-1"
M1026485     2           2.8539 /_ -176.6 =    -2.8488 +j  -0.17124
------------
M1026492     2           2.8542 /_    3.4 =     2.8492 +j   0.17014

ELEMENT = "Line.x8223_48332_sw"
D6413567-3_INT     1           78.727 /_  -24.2 =     71.815 +j   -32.258
D6413567-3_INT     2           83.899 /_ -147.7 =    -70.903 +j   -44.854
D6413567-3_INT     3           45.908 /_  130.3 =    -29.695 +j    35.011
------------
E182724     1           78.727 /_  155.8 =    -71.815 +j    32.258
E182724     2           83.899 /_   32.3 =     70.903 +j    44.854
E182724     3           45.908 /_  -49.7 =     29.695 +j   -35.011

ELEMENT = "Line.ln6413567-3"
N1139541     1           78.727 /_  -24.2 =     71.815 +j   -32.258
N1139541     2             83.9 /_ -147.7 =    -70.903 +j   -44.855
N1139541     3           45.908 /_  130.3 =    -29.695 +j    35.011
------------
D6413567-3_INT     1           78.727 /_  155.8 =    -71.815 +j    32.258
D6413567-3_INT     2           83.899 /_   32.3 =     70.903 +j    44.854
D6413567-3_INT     3           45.908 /_  -49.7 =     29.695 +j   -35.011

ELEMENT = "Line.ln5591731-3"
M4122658     1           353.53 /_  -49.5 =     229.54 +j   -268.88
M4122658     2            325.7 /_ -171.1 =    -321.74 +j    -50.65
M4122658     3           226.33 /_   79.3 =     41.945 +j    222.41
------------
L2933135     1           353.53 /_  130.5 =    -229.54 +j    268.88
L2933135     2            325.7 /_    8.9 =     321.74 +j     50.65
L2933135     3           226.33 /_ -100.7 =    -41.945 +j   -222.41

ELEMENT = "Line.ln5653470-1"
M1026702     1           1.2923 /_  -59.5 =    0.65517 +j   -1.1139
M1026702     2           1.3861 /_  178.9 =    -1.3858 +j   0.02753
M1026702     3           1.4563 /_   64.9 =    0.61811 +j    1.3186
------------
L2729414     1           1.2927 /_  120.4 =   -0.65425 +j    1.1149
L2729414     2           1.3865 /_   -1.2 =     1.3862 +j   -0.0289
L2729414     3           1.4565 /_ -115.2 =   -0.61945 +j   -1.3182

...